from khaledhassan/simplescalar

RUN echo 'alias soo=/simplescalar/simplesim-3.0/sim-outorder' >> ~/.bashrc
RUN echo 'alias pv=/simplescalar/simplesim-3.0/pipeview.pl' >> ~/.bashrc

WORKDIR /lab